&time_control
    run_days = 0
    run_hours = 8
    run_minutes = 0
    run_seconds = 0
    start_year = 2015, 2015, 2015, 2015, 2015,
    start_month = 9, 9, 9, 9, 9,
    start_day = 26, 26, 26, 26, 26,
    start_hour = 16, 16, 16, 16, 16
    start_minute = 30, 30, 30, 30, 30,
    start_second = 0, 0, 0, 0, 0,
    end_year = 2015, 2015, 2015, 2015, 2015
    end_month = 9, 9, 9, 9, 9,
    end_day = 28, 28, 28, 28, 28,
    end_hour = 0, 0, 0, 0, 0,
    end_minute = 0, 0, 0, 0, 0,
    end_second = 0, 0, 0, 0, 0,
    interval_seconds = 3600
    input_from_file = .true., .true., .true., .true., .true.,
    history_interval = 120, 60, 30, 15, 5,
    frames_per_outfile = 24, 24, 24, 24, 24,
    restart = .true.
    restart_interval = 120
    io_form_history = 2
    io_form_restart = 2
    io_form_input = 2
    io_form_boundary = 2
    debug_level = 0
/

&domains
   time_step = 30
    max_dom = 5
    s_we = 1, 1, 1, 1, 1
    e_we = 97, 97, 97, 97, 97
    s_sn = 1, 1, 1, 1, 1
    e_sn = 97, 97, 97, 97, 97
    s_vert = 1, 1, 1, 1, 1
    e_vert = 41, 41, 41, 41, 41
    num_metgrid_levels = 30
    num_metgrid_soil_levels = 4
    dx = 12000, 4000.0, 1333.33333333, 444.444444444, 148.148148148
    dy = 12000, 4000.0, 1333.33333333, 444.444444444, 148.148148148
    grid_id = 1, 2, 3, 4, 5
    parent_id = 1, 1, 2, 3, 4
    i_parent_start = 1, 33, 33, 33, 33
    j_parent_start = 1, 33, 33, 33, 33
    parent_grid_ratio = 1, 3, 3, 3, 3
    parent_time_step_ratio = 1, 3, 3, 3, 3
    feedback = 1
    smooth_option = 0
    sr_x = 0, 0, 0, 0, 5
    sr_y = 0, 0, 0, 0, 5
    sfcp_to_sfcp = .true.
    p_top_requested = 10000
    eta_levels  = 1.0000000,0.9993108,0.9986216,0.9972433,0.99586745,0.9944916,0.99277625,0.9910609,0.9862732,
                  0.9801439,0.9726924,0.9639421,0.9539204,0.9426588,
                  0.9301929,0.9152795,0.8973656,0.8784591,0.8568135,
                  0.8295786,0.7971827,0.7656593,0.7378544,0.7108058,
                  0.6844963,0.6589090,0.6221019,0.5750499,0.5306000,
                  0.4886318,0.4490296,0.4116815,0.3764804,0.3433229,
                  0.3121096,0.2827452,0.2425756,0.1937878,0.1332843,
                 0.0586903,0.0000000,
/

&physics
    mp_physics = 8, 8, 8, 8, 8
    ra_lw_physics = 4, 4, 4, 4, 4
    ra_sw_physics = 4, 4, 4, 4, 4
    radt = 15, 15, 15, 15, 15
    sf_sfclay_physics = 5, 5, 5, 5, 5
    sf_surface_physics = 3, 3, 3, 3, 3
    bl_pbl_physics = 5, 5, 5, 5, 5
    bldt = 0, 0, 0, 0, 0
    cu_physics = 1, 0, 0, 0, 0
    cudt = 5, 0, 0, 0, 0
    isfflx = 1
    ifsnow = 1
    icloud = 1
    surface_input_source = 1
    num_soil_layers = 6
    maxiens = 1
    maxens = 3
    maxens2 = 3
    maxens3 = 16
    ensdim = 144
/

&fdda
/

&dynamics
    rk_ord = 3
    w_damping = 1
    diff_opt = 1
    km_opt = 4
    damp_opt = 3
    base_temp = 290.0
    zdamp = 5000.0, 5000.0, 5000.0, 5000.0, 5000.0
    dampcoef = 0.2, 0.2, 0.2, 0.2, 0.2
    khdif = 0, 0
    kvdif = 0, 0
    smdiv = 0.1, 0.1, 0.1, 0.1, 0.1
    emdiv = 0.01, 0.01, 0.01, 0.01, 0.01
    epssm = 0.1, 0.1, 0.1, 0.1, 0.1
    time_step_sound = 4, 4, 4, 4, 4
    h_mom_adv_order = 5, 5, 5, 5, 5
    v_mom_adv_order = 5, 5, 5, 5, 5
    h_sca_adv_order = 5, 5, 5, 5, 5
    v_sca_adv_order = 5, 5, 5, 5, 5
    non_hydrostatic = .true., .true., .true., .true., .true.
    tracer_opt = 2, 2, 2, 2, 2
/

&fire
    ifire = 0, 0, 0, 0, 2
    fire_fuel_read = 0, 0, 0, 0, -1
    fire_fuel_cat = 1, 1, 1, 1, 1
    fire_print_msg = 0, 1
    fire_print_file = 0, 0
    fmoist_run = .false., .false., .false., .false., .true.
    fmoist_interp = .false., .false., .false., .false., .true.
    fire_fmc_read = 0, 0, 0, 0, 0
    fmoist_freq = 0, 0
    fmoist_dt = 600, 600, 600, 600, 600
    fire_tign_in_time =0,0,0,0,57887,
    fire_num_ignitions = 0, 0, 0, 0, 0
    fire_ignition_start_lon1 = 0, 0, 0, 0, -112.0914
    fire_ignition_start_lat1 = 0, 0, 0, 0, 38.4403
    fire_ignition_end_lon1 = 0, 0, 0, 0, -112.0914
    fire_ignition_end_lat1 = 0, 0, 0, 0, 38.4403
    fire_ignition_radius1 = 0, 0, 0, 0, 200
    fire_ignition_ros1 = 0, 0, 0, 0, 1
    fire_ignition_start_time1 = 0, 0, 0, 0, 54000
    fire_ignition_end_time1 = 0, 0, 0, 0, 54240
    fire_ignition_start_lon2 = 0, 0
    fire_ignition_start_lat2 = 0, 0
    fire_ignition_end_lon2 = 0, 0
    fire_ignition_end_lat2 = 0, 0
    fire_ignition_radius2 = 0, 0
    fire_ignition_start_time2 = 0, 0
    fire_ignition_end_time2 = 0, 0
    fire_ignition_start_lon3 = 0, 0
    fire_ignition_start_lat3 = 0, 0
    fire_ignition_end_lon3 = 0, 0
    fire_ignition_end_lat3 = 0, 0
    fire_ignition_radius3 = 0, 0
    fire_ignition_start_time3 = 0, 0
    fire_ignition_end_time3 = 0, 0
    fire_ignition_start_lon4 = 0, 0
    fire_ignition_start_lat4 = 0, 0
    fire_ignition_end_lon4 = 0, 0
    fire_ignition_end_lat4 = 0, 0
    fire_ignition_radius4 = 0, 0
    fire_ignition_start_time4 = 0, 0
    fire_ignition_end_time4 = 0, 0
    fire_ignition_start_lon5 = 0, 0
    fire_ignition_start_lat5 = 0, 0
    fire_ignition_end_lon5 = 0, 0
    fire_ignition_end_lat5 = 0, 0
    fire_ignition_radius5 = 0, 0
    fire_ignition_start_time5 = 0, 0
    fire_ignition_end_time5 = 0, 0
    fire_viscosity = 0, 0, 0, 0, 0
    fire_ext_grnd = 5*__fire_ext_grnd__
    fire_atm_feedback=5*__fire_atm_feedback__
/

&bdy_control
    spec_bdy_width = 5
    spec_zone = 1
    relax_zone = 4
    specified = .true., .false., .false., .false., .false.
    periodic_x = .false., .false.
    symmetric_xs = .false., .false.
    symmetric_xe = .false., .false.
    open_xs = .false., .false.
    open_xe = .false., .false.
    periodic_y = .false., .false.
    symmetric_ys = .false., .false.
    symmetric_ye = .false., .false.
    open_ys = .false., .false.
    open_ye = .false., .false.
    nested = .false., .true., .true., .true., .true.
/

&grib2
/

&namelist_quilt
    nio_tasks_per_group = 0
    nio_groups = 1
/
